---- qbsp / ericw-tools v0.18.1 ----
Input file: hospitalHorror.map
Output file: hospitalHorror.bsp

---- LoadMapFile ----
*** WARNING 06: No info_player_deathmatch entities in level
          992 faces
          165 brushes
           13 entities
           10 unique texnames
          363 texinfo

Opened WAD: C:/QuakeDev/wads/prototype_1_3.wad
Opened WAD: C:/QuakeDev/wads/id1.wad
Processing hull 0...
---- Brush_LoadEntity ----
          150 brushes
          162 planes
---- CSGFaces ----
          902 brushfaces
          955 csgfaces
          850 mergedfaces
---- SolidBSP ----
         1048 split nodes
          398 solid leafs
          606 empty leafs
           45 water leafs
            0 detail leafs
            0 detail illusionary leafs
            0 detail fence leafs
            0 illusionary visblocker leafs
         2446 leaffaces
         2330 nodefaces
---- Portalize ----
          651 vis leafs
          651 vis clusters
         1634 vis portals
---- FillOutside ----
*** WARNING 10: Reached occupant at (-80 -768 120), no filling performed.
Leak file written to hospitalHorror.pts
---- MakeFaceEdges ----
---- GrowRegions ----
Processing hull 1...
*** WARNING 19: No entities in empty space -- no filling performed (hull 1)
Processing hull 2...
*** WARNING 19: No entities in empty space -- no filling performed (hull 2)
---- WriteBSPFile ----
Wrote hospitalHorror.bsp
          293 planes             5860
         2908 vertexes          34896
         1102 nodes             26448
          254 texinfo           10160
         2388 faces             47760
         1518 clipnodes         12144
          706 leafs             19768
         2504 marksurfaces       5008
         9549 surfedges         38196
         6195 edges             24780
           14 textures         126080
              lightdata             0
              visdata               0
              entdata            1181

0.143 seconds elapsed
Peak memory usage: 10351008 (9.9M)
