---- qbsp / ericw-tools v0.18.1 ----
Input file: hospitalHorror.map
Output file: hospitalHorror.bsp

---- LoadMapFile ----
*** WARNING 06: No info_player_deathmatch entities in level
         4940 faces
          560 brushes
          176 entities
           15 unique texnames
         2141 texinfo

Opened WAD: C:/QuakeDev/wads/prototype_1_3.wad
Opened WAD: C:/QuakeDev/wads/id1.wad
Processing hull 0...
---- Brush_LoadEntity ----
          471 brushes
         2297 planes
---- CSGFaces ----
         4170 brushfaces
         7262 csgfaces
         6531 mergedfaces
---- SolidBSP ----
         7598 split nodes
         1993 solid leafs
         3182 empty leafs
         2424 water leafs
            0 detail leafs
            0 detail illusionary leafs
            0 detail fence leafs
            0 illusionary visblocker leafs
        17555 leaffaces
        13368 nodefaces
---- Portalize ----
         5606 vis leafs
         5606 vis clusters
        20284 vis portals
---- FillOutside ----
          735 outleafs
---- MergeAll ----
         6320 mergefaces
---- SolidBSP ----
         3607 split nodes
          791 solid leafs
         1518 empty leafs
         1299 water leafs
            0 detail leafs
            0 detail illusionary leafs
            0 detail fence leafs
            0 illusionary visblocker leafs
        12354 leaffaces
         7380 nodefaces
---- Portalize ----
         2817 vis leafs
         2817 vis clusters
        10710 vis portals
---- Tjunc ----
         8427 world edges
        26592 edge points
         7438 edges added by tjunctions
            0 faces added by tjunctions
---- MakeFaceEdges ----
---- GrowRegions ----
Processing hull 1...
Processing hull 2...
---- WriteBSPFile ----
Wrote hospitalHorror.bsp
         4781 planes            95620
        11633 vertexes         139596
         4617 nodes            110808
         1797 texinfo           71880
         8544 faces            170880
         5415 clipnodes         43320
         3611 leafs            101108
        13673 marksurfaces      27346
        41210 surfedges        164840
        21093 edges             84372
           23 textures         179856
              lightdata             0
              visdata               0
              entdata           11996

1.544 seconds elapsed
Peak memory usage: 43663002 (41.6M)
